CM -------------------------------------------------------------------
CM  NEC2 model for simulating a folded dipole built from copper wire.
CM  Geometry is tuned for min SWR at 146.310 MHz
CM  
CM  Wire length before bends = 75.455 in
CM  Radius of bends          =  1.000 in
CM -------------------------------------------------------------------
CE
GW     1    41  4.39239E-01  1.36525E-01  9.14400E-01 -4.39239E-01  1.36525E-01  9.14400E-01  1.58750E-03
GA     2    15  2.54000E-02  9.00000E+01  2.70000E+02  1.58750E-03  0.00000E+00  0.00000E+00  0.00000E+00
GW     3    41 -4.39239E-01  1.36525E-01  8.63600E-01  4.39239E-01  1.36525E-01  8.63600E-01  1.58750E-03
GA     4    15  2.54000E-02  9.00000E+01  2.70000E+02  1.58750E-03  0.00000E+00  0.00000E+00  0.00000E+00
GW     5    41  5.11175E-01  0.00000E+00  8.89000E-01 -5.11175E-01  0.00000E+00  8.89000E-01  1.58750E-03
GM     0     0  0.00000E+00  0.00000E+00  0.00000E+00 -4.39239E-01  1.36525E-01  8.89000E-01  2.00000E+00
GM     0     0  0.00000E+00  0.00000E+00  0.00000E+00  4.39239E-01 -1.36525E-01 -8.89000E-01  3.00000E+00
GM     0     0  0.00000E+00  0.00000E+00 -0.00000E+00  0.00000E+00  0.00000E+00  0.00000E+00  3.00000E+00
GM     0     0  0.00000E+00 -0.00000E+00  0.00000E+00  0.00000E+00  0.00000E+00  0.00000E+00  3.00000E+00
GM     0     0 -0.00000E+00  0.00000E+00  0.00000E+00  0.00000E+00  0.00000E+00  0.00000E+00  3.00000E+00
GM     0     0  0.00000E+00  0.00000E+00  1.80000E+02  4.39239E-01  1.36525E-01  8.89000E-01  4.00000E+00
GM     0     0  0.00000E+00  0.00000E+00  0.00000E+00 -4.39239E-01 -1.36525E-01 -8.89000E-01  5.00000E+00
GM     0     0  0.00000E+00  0.00000E+00 -1.80000E+02  0.00000E+00  0.00000E+00  0.00000E+00  5.00000E+00
GM     0     0  0.00000E+00 -0.00000E+00  0.00000E+00  0.00000E+00  0.00000E+00  0.00000E+00  5.00000E+00
GM     0     0 -0.00000E+00  0.00000E+00  0.00000E+00  0.00000E+00  0.00000E+00  0.00000E+00  5.00000E+00
GE     0
EX     0     3    21     0  1.00000E+00  0.00000E+00
FR     0    40     0     0  1.45500E+02  5.00000E-02
RP     0    37    37     0  0.00000E+00  0.00000E+00  1.00000E+01  1.00000E+01
EN
