CM // NEC2 Input File
CE // End Comments
GW     1    15 -4.82600E-01  1.77800E-01  1.00000E-01  0.00000E+00  1.77800E-01  1.00000E-01  1.58500E-03
GW     3    15  0.00000E+00  1.77800E-01  1.00000E-01  4.88950E-01  1.77800E-01  1.00000E-01  1.58500E-03
GW     4    15  0.00000E+00  1.77800E-01  8.73000E-02 -4.82600E-01  1.77800E-01  8.73000E-02  1.58500E-03
GW     5     1  0.00000E+00  1.77800E-01  1.00000E-01  0.00000E+00  1.77800E-01  8.73000E-02  1.58500E-03
GA     6    15  6.35000E-03  9.00000E+01  2.70000E+02  1.58500E-03  0.00000E+00  0.00000E+00  0.00000E+00
GM     0     0  0.00000E+00  0.00000E+00  0.00000E+00 -4.82600E-01  1.77800E-01  9.36500E-02  6.00000E+00
GE     0     0  0.00000E+00  0.00000E+00  0.00000E+00  0.00000E+00  0.00000E+00  0.00000E+00  0.00000E+00
NH     0     0     0      0  0.00000E+00  0.00000E+00  0.00000E+00  0.00000E+00  0.00000E+00  0.00000E+00
EX     0     5     1      0  1.00000E+00  0.00000E+00  0.00000E+00  0.00000E+00  0.00000E+00  0.00000E+00
NE     0    10     1     10 -1.35000E+00  0.00000E+00 -1.35000E+00  3.00000E-01  0.00000E+00  3.00000E-01
RP     0    19    37      0  0.00000E+00  0.00000E+00  1.00000E+01  1.00000E+01  0.00000E+00  0.00000E+00
FR     0    29     0      0  1.41000E+02  2.50000E-01  1.48000E+02  0.00000E+00  0.00000E+00  0.00000E+00
EN     0     0     0      0  0.00000E+00  0.00000E+00  0.00000E+00  0.00000E+00  0.00000E+00  0.00000E+00
