CM // NEC2 Input File
CE // End Comments
GW     1    25  5.13080E-01  0.00000E+00  6.09600E-01 -5.13080E-01  0.00000E+00  6.09600E-01  1.58750E-03
GW     2    25  4.80316E-01  1.47320E-01  6.09600E-01  0.00000E+00  1.47320E-01  6.09600E-01  1.58750E-03
GW     3    25  0.00000E+00  1.47320E-01  6.09600E-01 -4.70341E-01  1.47320E-01  6.09600E-01  1.58750E-03
GW     4    25 -4.70341E-01  1.47320E-01  5.96900E-01  0.00000E+00  1.47320E-01  5.96900E-01  1.58750E-03
GW     5     3  0.00000E+00  1.47320E-01  5.96900E-01  0.00000E+00  1.47320E-01  6.09600E-01  1.58750E-03
GA     7    15  6.35000E-03  9.00000E+01  2.70000E+02  1.58750E-03  0.00000E+00  0.00000E+00  0.00000E+00
GM     0     0  0.00000E+00  0.00000E+00  0.00000E+00 -4.70341E-01  1.47320E-01  6.03250E-01  7.00000E+00
GE     0     0  0.00000E+00  0.00000E+00  0.00000E+00  0.00000E+00  0.00000E+00  0.00000E+00  0.00000E+00
NH     0     0     0      0  0.00000E+00  0.00000E+00  0.00000E+00  0.00000E+00  0.00000E+00  0.00000E+00
EX     0     5     1      0  1.00000E+00  0.00000E+00  0.00000E+00  0.00000E+00  0.00000E+00  0.00000E+00
NE     0    10     1     10 -1.35000E+00  0.00000E+00 -1.35000E+00  3.00000E-01  0.00000E+00  3.00000E-01
RP     0    19    37      0  0.00000E+00  0.00000E+00  1.00000E+01  1.00000E+01  0.00000E+00  0.00000E+00
FR     0    11     0      0  1.45000E+02  2.00000E-01  1.47000E+02  0.00000E+00  0.00000E+00  0.00000E+00
EN     0     0     0      0  0.00000E+00  0.00000E+00  0.00000E+00  0.00000E+00  0.00000E+00  0.00000E+00
