CM // NEC2 Input File
CE // End Comments
GW     1    15  4.79425E-01  0.00000E+00  0.00000E+00  9.52500E-03  0.00000E+00  0.00000E+00  1.58750E-03
GW     2    15  9.52500E-03  0.00000E+00  0.00000E+00 -9.52500E-03  0.00000E+00  0.00000E+00  1.58750E-03
GW     3    15 -9.52500E-03  0.00000E+00  0.00000E+00 -4.66725E-01  0.00000E+00  0.00000E+00  1.58750E-03
GW     4    15 -4.66725E-01  0.00000E+00 -2.54000E-02 -6.03250E-02  0.00000E+00 -2.54000E-02  1.58750E-03
GW     5    15 -6.03250E-02  0.00000E+00 -2.54000E-02 -9.52500E-03  0.00000E+00 -1.27000E-02  1.58750E-03
GW     6    15 -9.52500E-03  0.00000E+00 -1.27000E-02  9.52500E-03  0.00000E+00 -1.27000E-02  1.58750E-03
GW     7     1 -9.52500E-03  0.00000E+00 -1.27000E-02 -9.52500E-03  0.00000E+00  0.00000E+00  1.58750E-03
GA     8    15  1.27000E-02  9.00000E+01  2.70000E+02  1.58750E-03  0.00000E+00  0.00000E+00  0.00000E+00
GM     0     0  0.00000E+00  0.00000E+00  0.00000E+00 -4.66725E-01  0.00000E+00 -1.27000E-02  8.00000E+00
GE     0     0  0.00000E+00  0.00000E+00  0.00000E+00  0.00000E+00  0.00000E+00  0.00000E+00  0.00000E+00
NH     0     0     0      0  0.00000E+00  0.00000E+00  0.00000E+00  0.00000E+00  0.00000E+00  0.00000E+00
EX     0     7     1      0  1.00000E+00  0.00000E+00  0.00000E+00  0.00000E+00  0.00000E+00  0.00000E+00
NE     0    10     1     10 -1.35000E+00  0.00000E+00 -1.35000E+00  3.00000E-01  0.00000E+00  3.00000E-01
RP     0    19    37      0  0.00000E+00  0.00000E+00  1.00000E+01  1.00000E+01  0.00000E+00  0.00000E+00
FR     0    29     0      0  1.41000E+02  2.50000E-01  1.48000E+02  0.00000E+00  0.00000E+00  0.00000E+00
EN     0     0     0      0  0.00000E+00  0.00000E+00  0.00000E+00  0.00000E+00  0.00000E+00  0.00000E+00
