CM -------------------------------------------------------------------
CM  NEC2 model for simulating a folded dipole built from copper wire.
CM  Geometry is tuned for min SWR at 146.310 MHz
CM  
CM  Wire length before bends = 75.237 in
CM  Radius of bends          =  0.500 in
CM -------------------------------------------------------------------
CE
GW     1    51  4.57804E-01  1.33350E-01  9.14400E-01 -4.57804E-01  1.33350E-01  9.14400E-01  1.58750E-03
GA     2    15  1.27000E-02  9.00000E+01  2.70000E+02  1.58750E-03  0.00000E+00  0.00000E+00  0.00000E+00
GW     3    51 -4.57804E-01  1.33350E-01  8.89000E-01  4.57804E-01  1.33350E-01  8.89000E-01  1.58750E-03
GA     4    15  1.27000E-02  9.00000E+01  2.70000E+02  1.58750E-03  0.00000E+00  0.00000E+00  0.00000E+00
GM     0     0  0.00000E+00  0.00000E+00  0.00000E+00 -4.57804E-01  1.33350E-01  9.01700E-01  2.00000E+00
GM     0     0 -0.00000E+00 -0.00000E+00 -0.00000E+00  4.57804E-01 -1.33350E-01 -9.01700E-01  3.00000E+00
GM     0     0  0.00000E+00  0.00000E+00  1.80000E+02  4.57804E-01  1.33350E-01  9.01700E-01  4.00000E+00
GE     0
EX     0     3    26     0  1.00000E+00  0.00000E+00
FR     0    40     0     0  1.44000E+02  1.00000E-01
RP     0    37    37     0  0.00000E+00  0.00000E+00  1.00000E+01  1.00000E+01
EN
